24
0 1 IUPAC 1,3,7-trimethylpurine-2,6-dione
O                     0.246450073915     2.627457693884     0.000126586469
O                    -3.076888131533    -0.638998830051     0.000628524712
N                    -0.876299366478    -1.369524571691     0.000500487016
N                     2.250145598744     0.275531956338     0.000186860095
N                    -1.408745236993     0.967993209364     0.000488626889
N                     1.528729904223    -1.868536741165     0.000113737672
C                     0.855613403526     0.313204217378     0.000581354888
C                     0.452751323665    -1.013172416063     0.000433206554
C                    -0.058543280639     1.410896060860     0.000405794487
C                    -1.857852428599    -0.371698147709     0.000561879614
C                     2.596249212581    -1.050400707731    -0.000083288604
C                    -1.271860807775    -2.785270047545     0.000509650611
C                     3.150504811611     1.432092970999     0.000250515757
C                    -2.470163189843     1.992115696715     0.000409635996
H                     3.622208113962    -1.379389676563    -0.000340866008
H                    -0.874632965336    -3.282741999635    -0.887862003736
H                    -2.359513797058    -2.820599465347     0.000697657806
H                    -0.874320743275    -3.282799951232     0.888707769369
H                     4.179985569111     1.069802771836    -0.002213761930
H                     2.972756918523     2.047596417852    -0.883421251235
H                     2.976192476118     2.045048926458     0.886413065806
H                    -1.981188004349     2.964176474314     0.002152297796
H                    -3.099265927004     1.875289097369     0.885372221698
H                    -3.097117327077     1.877625505552    -0.886421517326


